# generated using pymatgen
data_Zn4H12C24O13
_symmetry_space_group_name_H-M   'P 1'
_cell_length_a   36.81400000
_cell_length_b   36.83200000
_cell_length_c   36.82200000
_cell_angle_alpha   60.32800000
_cell_angle_beta   60.25100000
_cell_angle_gamma   60.28300000
_symmetry_Int_Tables_number   1
_chemical_formula_structural   Zn4H12C24O13
_chemical_formula_sum   'Zn64 H192 C384 O208'
_cell_volume   35534.09180265
_cell_formula_units_Z   16
loop_
 _symmetry_equiv_pos_site_id
 _symmetry_equiv_pos_as_xyz
  1  'x, y, z'
loop_
 _atom_site_type_symbol
 _atom_site_label
 _atom_site_symmetry_multiplicity
 _atom_site_fract_x
 _atom_site_fract_y
 _atom_site_fract_z
 _atom_site_occupancy
  Zn  Zn1  1  0.147020  0.146801  0.146890  1
  Zn  Zn2  1  0.147020  0.146801  0.646890  1
  Zn  Zn3  1  0.147020  0.646801  0.146890  1
  Zn  Zn4  1  0.147020  0.646801  0.646890  1
  Zn  Zn5  1  0.647020  0.146801  0.146890  1
  Zn  Zn6  1  0.647020  0.146801  0.646890  1
  Zn  Zn7  1  0.647020  0.646801  0.146890  1
  Zn  Zn8  1  0.647020  0.646801  0.646890  1
  Zn  Zn9  1  0.146575  0.146615  0.059840  1
  Zn  Zn10  1  0.146575  0.146615  0.559840  1
  Zn  Zn11  1  0.146575  0.646614  0.059840  1
  Zn  Zn12  1  0.146575  0.646614  0.559840  1
  Zn  Zn13  1  0.646575  0.146615  0.059840  1
  Zn  Zn14  1  0.646575  0.146615  0.559840  1
  Zn  Zn15  1  0.646575  0.646614  0.059840  1
  Zn  Zn16  1  0.646575  0.646614  0.559840  1
  Zn  Zn17  1  0.146597  0.059892  0.146625  1
  Zn  Zn18  1  0.146597  0.059892  0.646625  1
  Zn  Zn19  1  0.146597  0.559891  0.146625  1
  Zn  Zn20  1  0.146597  0.559891  0.646625  1
  Zn  Zn21  1  0.646597  0.059892  0.146625  1
  Zn  Zn22  1  0.646597  0.059892  0.646625  1
  Zn  Zn23  1  0.646597  0.559891  0.146625  1
  Zn  Zn24  1  0.646597  0.559891  0.646625  1
  Zn  Zn25  1  0.059792  0.146571  0.146550  1
  Zn  Zn26  1  0.059792  0.146571  0.646550  1
  Zn  Zn27  1  0.059792  0.646571  0.146550  1
  Zn  Zn28  1  0.059792  0.646571  0.646550  1
  Zn  Zn29  1  0.559791  0.146571  0.146550  1
  Zn  Zn30  1  0.559791  0.146571  0.646550  1
  Zn  Zn31  1  0.559791  0.646571  0.146550  1
  Zn  Zn32  1  0.559791  0.646571  0.646550  1
  Zn  Zn33  1  0.352990  0.353196  0.353105  1
  Zn  Zn34  1  0.352990  0.353196  0.853105  1
  Zn  Zn35  1  0.352990  0.853197  0.353105  1
  Zn  Zn36  1  0.352990  0.853197  0.853105  1
  Zn  Zn37  1  0.852990  0.353196  0.353105  1
  Zn  Zn38  1  0.852990  0.353196  0.853105  1
  Zn  Zn39  1  0.852989  0.853197  0.353105  1
  Zn  Zn40  1  0.852989  0.853197  0.853105  1
  Zn  Zn41  1  0.353434  0.353383  0.440155  1
  Zn  Zn42  1  0.353434  0.353383  0.940155  1
  Zn  Zn43  1  0.353434  0.853383  0.440155  1
  Zn  Zn44  1  0.353434  0.853383  0.940155  1
  Zn  Zn45  1  0.853434  0.353383  0.440155  1
  Zn  Zn46  1  0.853434  0.353383  0.940155  1
  Zn  Zn47  1  0.853435  0.853383  0.440155  1
  Zn  Zn48  1  0.853435  0.853383  0.940155  1
  Zn  Zn49  1  0.440218  0.353426  0.353435  1
  Zn  Zn50  1  0.440218  0.353426  0.853435  1
  Zn  Zn51  1  0.440218  0.853426  0.353435  1
  Zn  Zn52  1  0.440218  0.853426  0.853435  1
  Zn  Zn53  1  0.940218  0.353426  0.353435  1
  Zn  Zn54  1  0.940218  0.353426  0.853435  1
  Zn  Zn55  1  0.940218  0.853426  0.353435  1
  Zn  Zn56  1  0.940218  0.853426  0.853435  1
  Zn  Zn57  1  0.353413  0.440106  0.353370  1
  Zn  Zn58  1  0.353413  0.440106  0.853370  1
  Zn  Zn59  1  0.353413  0.940106  0.353370  1
  Zn  Zn60  1  0.353413  0.940106  0.853370  1
  Zn  Zn61  1  0.853413  0.440106  0.353370  1
  Zn  Zn62  1  0.853413  0.440106  0.853370  1
  Zn  Zn63  1  0.853413  0.940106  0.353370  1
  Zn  Zn64  1  0.853413  0.940106  0.853370  1
  H  H65  1  0.082154  0.226239  0.226260  1
  H  H66  1  0.082154  0.226239  0.726260  1
  H  H67  1  0.082154  0.726238  0.226260  1
  H  H68  1  0.082154  0.726238  0.726260  1
  H  H69  1  0.582154  0.226239  0.226260  1
  H  H70  1  0.582154  0.226239  0.726260  1
  H  H71  1  0.582154  0.726238  0.226260  1
  H  H72  1  0.582154  0.726238  0.726260  1
  H  H73  1  0.225886  0.082063  0.466000  1
  H  H74  1  0.225886  0.082063  0.966000  1
  H  H75  1  0.225886  0.582063  0.466000  1
  H  H76  1  0.225886  0.582063  0.966000  1
  H  H77  1  0.725886  0.082063  0.466000  1
  H  H78  1  0.725886  0.082063  0.966000  1
  H  H79  1  0.725886  0.582063  0.466000  1
  H  H80  1  0.725886  0.582063  0.966000  1
  H  H81  1  0.225826  0.466079  0.082110  1
  H  H82  1  0.225826  0.466079  0.582110  1
  H  H83  1  0.225826  0.966079  0.082110  1
  H  H84  1  0.225826  0.966079  0.582110  1
  H  H85  1  0.725826  0.466079  0.082110  1
  H  H86  1  0.725826  0.466079  0.582110  1
  H  H87  1  0.725826  0.966079  0.082110  1
  H  H88  1  0.725826  0.966079  0.582110  1
  H  H89  1  0.466120  0.225626  0.225600  1
  H  H90  1  0.466120  0.225626  0.725600  1
  H  H91  1  0.466120  0.725626  0.225600  1
  H  H92  1  0.466120  0.725626  0.725600  1
  H  H93  1  0.966120  0.225626  0.225600  1
  H  H94  1  0.966120  0.225626  0.725600  1
  H  H95  1  0.966120  0.725626  0.225600  1
  H  H96  1  0.966120  0.725626  0.725600  1
  H  H97  1  0.082172  0.225830  0.465975  1
  H  H98  1  0.082172  0.225830  0.965975  1
  H  H99  1  0.082172  0.725830  0.465975  1
  H  H100  1  0.082172  0.725830  0.965975  1
  H  H101  1  0.582172  0.225830  0.465975  1
  H  H102  1  0.582172  0.225830  0.965975  1
  H  H103  1  0.582173  0.725830  0.465975  1
  H  H104  1  0.582173  0.725830  0.965975  1
  H  H105  1  0.225595  0.466197  0.225580  1
  H  H106  1  0.225595  0.466197  0.725580  1
  H  H107  1  0.225595  0.966197  0.225580  1
  H  H108  1  0.225595  0.966197  0.725580  1
  H  H109  1  0.725595  0.466197  0.225580  1
  H  H110  1  0.725595  0.466197  0.725580  1
  H  H111  1  0.725595  0.966197  0.225580  1
  H  H112  1  0.725595  0.966197  0.725580  1
  H  H113  1  0.226365  0.082050  0.226300  1
  H  H114  1  0.226365  0.082050  0.726300  1
  H  H115  1  0.226366  0.582051  0.226300  1
  H  H116  1  0.226366  0.582051  0.726300  1
  H  H117  1  0.726365  0.082050  0.226300  1
  H  H118  1  0.726365  0.082050  0.726300  1
  H  H119  1  0.726365  0.582051  0.226300  1
  H  H120  1  0.726365  0.582051  0.726300  1
  H  H121  1  0.465898  0.225889  0.082110  1
  H  H122  1  0.465898  0.225889  0.582110  1
  H  H123  1  0.465898  0.725889  0.082110  1
  H  H124  1  0.465898  0.725889  0.582110  1
  H  H125  1  0.965898  0.225889  0.082110  1
  H  H126  1  0.965898  0.225889  0.582110  1
  H  H127  1  0.965898  0.725889  0.082110  1
  H  H128  1  0.965898  0.725889  0.582110  1
  H  H129  1  0.082173  0.466062  0.225795  1
  H  H130  1  0.082173  0.466062  0.725795  1
  H  H131  1  0.082173  0.966062  0.225795  1
  H  H132  1  0.082173  0.966062  0.725795  1
  H  H133  1  0.582172  0.466062  0.225795  1
  H  H134  1  0.582172  0.466062  0.725795  1
  H  H135  1  0.582172  0.966062  0.225795  1
  H  H136  1  0.582172  0.966062  0.725795  1
  H  H137  1  0.226334  0.226275  0.082095  1
  H  H138  1  0.226334  0.226275  0.582095  1
  H  H139  1  0.226334  0.726275  0.082095  1
  H  H140  1  0.226334  0.726275  0.582095  1
  H  H141  1  0.726334  0.226275  0.082095  1
  H  H142  1  0.726334  0.226275  0.582095  1
  H  H143  1  0.726334  0.726275  0.082095  1
  H  H144  1  0.726334  0.726275  0.582095  1
  H  H145  1  0.225627  0.225602  0.466150  1
  H  H146  1  0.225627  0.225602  0.966150  1
  H  H147  1  0.225627  0.725602  0.466150  1
  H  H148  1  0.225627  0.725602  0.966150  1
  H  H149  1  0.725627  0.225602  0.466150  1
  H  H150  1  0.725627  0.225602  0.966150  1
  H  H151  1  0.725627  0.725602  0.466150  1
  H  H152  1  0.725627  0.725602  0.966150  1
  H  H153  1  0.465902  0.082062  0.225920  1
  H  H154  1  0.465902  0.082062  0.725920  1
  H  H155  1  0.465902  0.582062  0.225920  1
  H  H156  1  0.465902  0.582062  0.725920  1
  H  H157  1  0.965902  0.082062  0.225920  1
  H  H158  1  0.965902  0.082062  0.725920  1
  H  H159  1  0.965903  0.582062  0.225920  1
  H  H160  1  0.965903  0.582062  0.725920  1
  H  H161  1  0.273644  0.417948  0.273660  1
  H  H162  1  0.273644  0.417948  0.773660  1
  H  H163  1  0.273644  0.917947  0.273660  1
  H  H164  1  0.273644  0.917947  0.773660  1
  H  H165  1  0.773644  0.417948  0.273660  1
  H  H166  1  0.773644  0.417948  0.773660  1
  H  H167  1  0.773644  0.917947  0.273660  1
  H  H168  1  0.773644  0.917947  0.773660  1
  H  H169  1  0.417837  0.274168  0.034020  1
  H  H170  1  0.417837  0.274168  0.534020  1
  H  H171  1  0.417838  0.774168  0.034020  1
  H  H172  1  0.417838  0.774168  0.534020  1
  H  H173  1  0.917837  0.274168  0.034020  1
  H  H174  1  0.917837  0.274168  0.534020  1
  H  H175  1  0.917837  0.774168  0.034020  1
  H  H176  1  0.917837  0.774168  0.534020  1
  H  H177  1  0.034112  0.274108  0.417885  1
  H  H178  1  0.034112  0.274108  0.917885  1
  H  H179  1  0.034112  0.774108  0.417885  1
  H  H180  1  0.034112  0.774108  0.917885  1
  H  H181  1  0.534112  0.274108  0.417885  1
  H  H182  1  0.534112  0.274108  0.917885  1
  H  H183  1  0.534112  0.774108  0.417885  1
  H  H184  1  0.534112  0.774108  0.917885  1
  H  H185  1  0.274415  0.033801  0.274415  1
  H  H186  1  0.274415  0.033801  0.774415  1
  H  H187  1  0.274415  0.533801  0.274415  1
  H  H188  1  0.274415  0.533801  0.774415  1
  H  H189  1  0.774415  0.033801  0.274415  1
  H  H190  1  0.774415  0.033801  0.774415  1
  H  H191  1  0.774415  0.533801  0.274415  1
  H  H192  1  0.774415  0.533801  0.774415  1
  H  H193  1  0.274122  0.417934  0.033995  1
  H  H194  1  0.274122  0.417934  0.533995  1
  H  H195  1  0.274122  0.917934  0.033995  1
  H  H196  1  0.274122  0.917934  0.533995  1
  H  H197  1  0.774122  0.417934  0.033995  1
  H  H198  1  0.774122  0.417934  0.533995  1
  H  H199  1  0.774122  0.917934  0.033995  1
  H  H200  1  0.774122  0.917934  0.533995  1
  H  H201  1  0.033889  0.274370  0.274360  1
  H  H202  1  0.033889  0.274370  0.774360  1
  H  H203  1  0.033889  0.774370  0.274360  1
  H  H204  1  0.033889  0.774370  0.774360  1
  H  H205  1  0.533889  0.274370  0.274360  1
  H  H206  1  0.533889  0.274370  0.774360  1
  H  H207  1  0.533889  0.774370  0.274360  1
  H  H208  1  0.533889  0.774370  0.774360  1
  H  H209  1  0.417855  0.273757  0.273735  1
  H  H210  1  0.417855  0.273757  0.773735  1
  H  H211  1  0.417855  0.773757  0.273735  1
  H  H212  1  0.417855  0.773757  0.773735  1
  H  H213  1  0.917855  0.273757  0.273735  1
  H  H214  1  0.917855  0.273757  0.773735  1
  H  H215  1  0.917855  0.773757  0.273735  1
  H  H216  1  0.917855  0.773757  0.773735  1
  H  H217  1  0.274183  0.033919  0.417885  1
  H  H218  1  0.274183  0.033919  0.917885  1
  H  H219  1  0.274183  0.533919  0.417885  1
  H  H220  1  0.274183  0.533919  0.917885  1
  H  H221  1  0.774183  0.033919  0.417885  1
  H  H222  1  0.774183  0.033919  0.917885  1
  H  H223  1  0.774183  0.533919  0.417885  1
  H  H224  1  0.774183  0.533919  0.917885  1
  H  H225  1  0.034107  0.417936  0.274075  1
  H  H226  1  0.034107  0.417936  0.774075  1
  H  H227  1  0.034107  0.917936  0.274075  1
  H  H228  1  0.034107  0.917936  0.774075  1
  H  H229  1  0.534107  0.417936  0.274075  1
  H  H230  1  0.534107  0.417936  0.774075  1
  H  H231  1  0.534107  0.917936  0.274075  1
  H  H232  1  0.534107  0.917936  0.774075  1
  H  H233  1  0.273676  0.273721  0.417900  1
  H  H234  1  0.273676  0.273721  0.917900  1
  H  H235  1  0.273676  0.773722  0.417900  1
  H  H236  1  0.273676  0.773722  0.917900  1
  H  H237  1  0.773676  0.273721  0.417900  1
  H  H238  1  0.773676  0.273721  0.917900  1
  H  H239  1  0.773676  0.773722  0.417900  1
  H  H240  1  0.773676  0.773722  0.917900  1
  H  H241  1  0.274383  0.274395  0.033845  1
  H  H242  1  0.274383  0.274395  0.533845  1
  H  H243  1  0.274383  0.774396  0.033845  1
  H  H244  1  0.274383  0.774396  0.533845  1
  H  H245  1  0.774383  0.274395  0.033845  1
  H  H246  1  0.774383  0.274395  0.533845  1
  H  H247  1  0.774383  0.774396  0.033845  1
  H  H248  1  0.774383  0.774396  0.533845  1
  H  H249  1  0.417837  0.033936  0.274200  1
  H  H250  1  0.417837  0.033936  0.774200  1
  H  H251  1  0.417837  0.533936  0.274200  1
  H  H252  1  0.417837  0.533936  0.774200  1
  H  H253  1  0.917837  0.033936  0.274200  1
  H  H254  1  0.917837  0.033936  0.774200  1
  H  H255  1  0.917838  0.533936  0.274200  1
  H  H256  1  0.917838  0.533936  0.774200  1
  C  C257  1  0.046164  0.236834  0.236850  1
  C  C258  1  0.046164  0.236834  0.736850  1
  C  C259  1  0.046164  0.736834  0.236850  1
  C  C260  1  0.046164  0.736834  0.736850  1
  C  C261  1  0.546164  0.236834  0.236850  1
  C  C262  1  0.546164  0.236834  0.736850  1
  C  C263  1  0.546165  0.736834  0.236850  1
  C  C264  1  0.546165  0.736834  0.736850  1
  C  C265  1  0.236646  0.046116  0.480500  1
  C  C266  1  0.236646  0.046116  0.980500  1
  C  C267  1  0.236646  0.546117  0.480500  1
  C  C268  1  0.236646  0.546117  0.980500  1
  C  C269  1  0.736646  0.046116  0.480500  1
  C  C270  1  0.736646  0.046116  0.980500  1
  C  C271  1  0.736646  0.546117  0.480500  1
  C  C272  1  0.736646  0.546117  0.980500  1
  C  C273  1  0.236614  0.480539  0.046140  1
  C  C274  1  0.236614  0.480539  0.546140  1
  C  C275  1  0.236613  0.980540  0.046140  1
  C  C276  1  0.236613  0.980540  0.546140  1
  C  C277  1  0.736614  0.480539  0.046140  1
  C  C278  1  0.736614  0.480539  0.546140  1
  C  C279  1  0.736614  0.980540  0.046140  1
  C  C280  1  0.736614  0.980540  0.546140  1
  C  C281  1  0.480585  0.236492  0.236500  1
  C  C282  1  0.480585  0.236492  0.736500  1
  C  C283  1  0.480585  0.736492  0.236500  1
  C  C284  1  0.480585  0.736492  0.736500  1
  C  C285  1  0.980585  0.236492  0.236500  1
  C  C286  1  0.980585  0.236492  0.736500  1
  C  C287  1  0.980585  0.736492  0.236500  1
  C  C288  1  0.980585  0.736492  0.736500  1
  C  C289  1  0.046175  0.236612  0.480490  1
  C  C290  1  0.046175  0.236612  0.980490  1
  C  C291  1  0.046175  0.736611  0.480490  1
  C  C292  1  0.046175  0.736611  0.980490  1
  C  C293  1  0.546175  0.236612  0.480490  1
  C  C294  1  0.546175  0.236612  0.980490  1
  C  C295  1  0.546175  0.736611  0.480490  1
  C  C296  1  0.546175  0.736611  0.980490  1
  C  C297  1  0.236480  0.480623  0.236465  1
  C  C298  1  0.236480  0.480623  0.736465  1
  C  C299  1  0.236480  0.980623  0.236465  1
  C  C300  1  0.236480  0.980623  0.736465  1
  C  C301  1  0.736480  0.480623  0.236465  1
  C  C302  1  0.736480  0.480623  0.736465  1
  C  C303  1  0.736480  0.980623  0.236465  1
  C  C304  1  0.736480  0.980623  0.736465  1
  C  C305  1  0.236911  0.046108  0.236885  1
  C  C306  1  0.236911  0.046108  0.736885  1
  C  C307  1  0.236911  0.546107  0.236885  1
  C  C308  1  0.236911  0.546107  0.736885  1
  C  C309  1  0.736911  0.046108  0.236885  1
  C  C310  1  0.736911  0.046108  0.736885  1
  C  C311  1  0.736911  0.546107  0.236885  1
  C  C312  1  0.736911  0.546107  0.736885  1
  C  C313  1  0.480455  0.236641  0.046140  1
  C  C314  1  0.480455  0.236641  0.546140  1
  C  C315  1  0.480455  0.736641  0.046140  1
  C  C316  1  0.480455  0.736641  0.546140  1
  C  C317  1  0.980455  0.236641  0.046140  1
  C  C318  1  0.980455  0.236641  0.546140  1
  C  C319  1  0.980455  0.736641  0.046140  1
  C  C320  1  0.980455  0.736641  0.546140  1
  C  C321  1  0.046175  0.480535  0.236590  1
  C  C322  1  0.046175  0.480535  0.736590  1
  C  C323  1  0.046175  0.980536  0.236590  1
  C  C324  1  0.046175  0.980536  0.736590  1
  C  C325  1  0.546175  0.480535  0.236590  1
  C  C326  1  0.546175  0.480535  0.736590  1
  C  C327  1  0.546175  0.980536  0.236590  1
  C  C328  1  0.546175  0.980536  0.736590  1
  C  C329  1  0.236895  0.236854  0.046130  1
  C  C330  1  0.236895  0.236854  0.546130  1
  C  C331  1  0.236894  0.736854  0.046130  1
  C  C332  1  0.236894  0.736854  0.546130  1
  C  C333  1  0.736895  0.236854  0.046130  1
  C  C334  1  0.736895  0.236854  0.546130  1
  C  C335  1  0.736895  0.736854  0.046130  1
  C  C336  1  0.736895  0.736854  0.546130  1
  C  C337  1  0.236498  0.236480  0.480600  1
  C  C338  1  0.236498  0.236480  0.980600  1
  C  C339  1  0.236497  0.736480  0.480600  1
  C  C340  1  0.236497  0.736480  0.980600  1
  C  C341  1  0.736498  0.236480  0.480600  1
  C  C342  1  0.736498  0.236480  0.980600  1
  C  C343  1  0.736498  0.736480  0.480600  1
  C  C344  1  0.736498  0.736480  0.980600  1
  C  C345  1  0.480455  0.046115  0.236655  1
  C  C346  1  0.480455  0.046115  0.736655  1
  C  C347  1  0.480455  0.546114  0.236655  1
  C  C348  1  0.480455  0.546114  0.736655  1
  C  C349  1  0.980455  0.046115  0.236655  1
  C  C350  1  0.980455  0.046115  0.736655  1
  C  C351  1  0.980455  0.546114  0.236655  1
  C  C352  1  0.980455  0.546114  0.736655  1
  C  C353  1  0.263100  0.453890  0.263100  1
  C  C354  1  0.263100  0.453890  0.763100  1
  C  C355  1  0.263100  0.953890  0.263100  1
  C  C356  1  0.263100  0.953890  0.763100  1
  C  C357  1  0.763100  0.453890  0.263100  1
  C  C358  1  0.763100  0.453890  0.763100  1
  C  C359  1  0.763100  0.953890  0.263100  1
  C  C360  1  0.763100  0.953890  0.763100  1
  C  C361  1  0.453835  0.263385  0.019500  1
  C  C362  1  0.453835  0.263385  0.519500  1
  C  C363  1  0.453835  0.763385  0.019500  1
  C  C364  1  0.453835  0.763385  0.519500  1
  C  C365  1  0.953835  0.263385  0.019500  1
  C  C366  1  0.953835  0.263385  0.519500  1
  C  C367  1  0.953835  0.763385  0.019500  1
  C  C368  1  0.953835  0.763385  0.519500  1
  C  C369  1  0.019555  0.263356  0.453855  1
  C  C370  1  0.019555  0.263356  0.953855  1
  C  C371  1  0.019556  0.763356  0.453855  1
  C  C372  1  0.019556  0.763356  0.953855  1
  C  C373  1  0.519556  0.263356  0.453855  1
  C  C374  1  0.519556  0.263356  0.953855  1
  C  C375  1  0.519556  0.763356  0.453855  1
  C  C376  1  0.519556  0.763356  0.953855  1
  C  C377  1  0.263531  0.019375  0.263530  1
  C  C378  1  0.263531  0.019375  0.763530  1
  C  C379  1  0.263531  0.519375  0.263530  1
  C  C380  1  0.263531  0.519375  0.763530  1
  C  C381  1  0.763531  0.019375  0.263530  1
  C  C382  1  0.763531  0.019375  0.763530  1
  C  C383  1  0.763531  0.519375  0.263530  1
  C  C384  1  0.763531  0.519375  0.763530  1
  C  C385  1  0.263360  0.453881  0.019495  1
  C  C386  1  0.263360  0.453881  0.519495  1
  C  C387  1  0.263360  0.953881  0.019495  1
  C  C388  1  0.263360  0.953881  0.519495  1
  C  C389  1  0.763360  0.453881  0.019495  1
  C  C390  1  0.763360  0.453881  0.519495  1
  C  C391  1  0.763361  0.953881  0.019495  1
  C  C392  1  0.763361  0.953881  0.519495  1
  C  C393  1  0.019424  0.263502  0.263495  1
  C  C394  1  0.019424  0.263502  0.763495  1
  C  C395  1  0.019425  0.763502  0.263495  1
  C  C396  1  0.019425  0.763502  0.763495  1
  C  C397  1  0.519425  0.263502  0.263495  1
  C  C398  1  0.519425  0.263502  0.763495  1
  C  C399  1  0.519425  0.763502  0.263495  1
  C  C400  1  0.519425  0.763502  0.763495  1
  C  C401  1  0.453845  0.263159  0.263145  1
  C  C402  1  0.453845  0.263159  0.763145  1
  C  C403  1  0.453845  0.763159  0.263145  1
  C  C404  1  0.453845  0.763159  0.763145  1
  C  C405  1  0.953845  0.263159  0.263145  1
  C  C406  1  0.953845  0.263159  0.763145  1
  C  C407  1  0.953845  0.763159  0.263145  1
  C  C408  1  0.953845  0.763159  0.763145  1
  C  C409  1  0.263394  0.019458  0.453855  1
  C  C410  1  0.263394  0.019458  0.953855  1
  C  C411  1  0.263394  0.519458  0.453855  1
  C  C412  1  0.263394  0.519458  0.953855  1
  C  C413  1  0.763394  0.019458  0.453855  1
  C  C414  1  0.763394  0.019458  0.953855  1
  C  C415  1  0.763394  0.519458  0.453855  1
  C  C416  1  0.763394  0.519458  0.953855  1
  C  C417  1  0.019555  0.453883  0.263335  1
  C  C418  1  0.019555  0.453883  0.763335  1
  C  C419  1  0.019555  0.953883  0.263335  1
  C  C420  1  0.019555  0.953883  0.763335  1
  C  C421  1  0.519555  0.453883  0.263335  1
  C  C422  1  0.519555  0.453883  0.763335  1
  C  C423  1  0.519555  0.953883  0.263335  1
  C  C424  1  0.519555  0.953883  0.763335  1
  C  C425  1  0.263117  0.263142  0.453865  1
  C  C426  1  0.263117  0.263142  0.953865  1
  C  C427  1  0.263117  0.763142  0.453865  1
  C  C428  1  0.263117  0.763142  0.953865  1
  C  C429  1  0.763117  0.263142  0.453865  1
  C  C430  1  0.763117  0.263142  0.953865  1
  C  C431  1  0.763117  0.763142  0.453865  1
  C  C432  1  0.763117  0.763142  0.953865  1
  C  C433  1  0.263514  0.263516  0.019395  1
  C  C434  1  0.263514  0.263516  0.519395  1
  C  C435  1  0.263513  0.763516  0.019395  1
  C  C436  1  0.263513  0.763516  0.519395  1
  C  C437  1  0.763513  0.263516  0.019395  1
  C  C438  1  0.763513  0.263516  0.519395  1
  C  C439  1  0.763514  0.763516  0.019395  1
  C  C440  1  0.763514  0.763516  0.519395  1
  C  C441  1  0.453835  0.019462  0.263400  1
  C  C442  1  0.453835  0.019462  0.763400  1
  C  C443  1  0.453835  0.519462  0.263400  1
  C  C444  1  0.453835  0.519462  0.763400  1
  C  C445  1  0.953835  0.019462  0.263400  1
  C  C446  1  0.953835  0.019462  0.763400  1
  C  C447  1  0.953835  0.519462  0.263400  1
  C  C448  1  0.953835  0.519462  0.763400  1
  C  C449  1  0.055649  0.194463  0.194505  1
  C  C450  1  0.055649  0.194463  0.694505  1
  C  C451  1  0.055649  0.694463  0.194505  1
  C  C452  1  0.055649  0.694463  0.694505  1
  C  C453  1  0.555649  0.194463  0.194505  1
  C  C454  1  0.555649  0.194463  0.694505  1
  C  C455  1  0.555649  0.694463  0.194505  1
  C  C456  1  0.555649  0.694463  0.694505  1
  C  C457  1  0.026915  0.223154  0.223175  1
  C  C458  1  0.026915  0.223154  0.723175  1
  C  C459  1  0.026916  0.723154  0.223175  1
  C  C460  1  0.026916  0.723154  0.723175  1
  C  C461  1  0.526915  0.223154  0.223175  1
  C  C462  1  0.526915  0.223154  0.723175  1
  C  C463  1  0.526916  0.723154  0.223175  1
  C  C464  1  0.526916  0.723154  0.723175  1
  C  C465  1  0.194316  0.055487  0.055460  1
  C  C466  1  0.194316  0.055487  0.555460  1
  C  C467  1  0.194316  0.555487  0.055460  1
  C  C468  1  0.194316  0.555487  0.555460  1
  C  C469  1  0.694316  0.055487  0.055460  1
  C  C470  1  0.694316  0.055487  0.555460  1
  C  C471  1  0.694316  0.555487  0.055460  1
  C  C472  1  0.694316  0.555487  0.555460  1
  C  C473  1  0.223077  0.026821  0.026800  1
  C  C474  1  0.223077  0.026821  0.526800  1
  C  C475  1  0.223077  0.526821  0.026800  1
  C  C476  1  0.223077  0.526821  0.526800  1
  C  C477  1  0.723076  0.026821  0.026800  1
  C  C478  1  0.723076  0.026821  0.526800  1
  C  C479  1  0.723077  0.526821  0.026800  1
  C  C480  1  0.723077  0.526821  0.526800  1
  C  C481  1  0.055429  0.194298  0.055445  1
  C  C482  1  0.055429  0.194298  0.555445  1
  C  C483  1  0.055430  0.694298  0.055445  1
  C  C484  1  0.055430  0.694298  0.555445  1
  C  C485  1  0.555430  0.194298  0.055445  1
  C  C486  1  0.555430  0.194298  0.555445  1
  C  C487  1  0.555430  0.694298  0.055445  1
  C  C488  1  0.555430  0.694298  0.555445  1
  C  C489  1  0.026790  0.223067  0.026800  1
  C  C490  1  0.026790  0.223067  0.526800  1
  C  C491  1  0.026789  0.723067  0.026800  1
  C  C492  1  0.026789  0.723067  0.526800  1
  C  C493  1  0.526790  0.223067  0.026800  1
  C  C494  1  0.526790  0.223067  0.526800  1
  C  C495  1  0.526790  0.723067  0.026800  1
  C  C496  1  0.526790  0.723067  0.526800  1
  C  C497  1  0.194564  0.055628  0.194515  1
  C  C498  1  0.194564  0.055628  0.694515  1
  C  C499  1  0.194564  0.555628  0.194515  1
  C  C500  1  0.194564  0.555628  0.694515  1
  C  C501  1  0.694564  0.055628  0.194515  1
  C  C502  1  0.694564  0.055628  0.694515  1
  C  C503  1  0.694564  0.555628  0.194515  1
  C  C504  1  0.694564  0.555628  0.694515  1
  C  C505  1  0.223210  0.026912  0.223175  1
  C  C506  1  0.223210  0.026912  0.723175  1
  C  C507  1  0.223210  0.526911  0.223175  1
  C  C508  1  0.223210  0.526911  0.723175  1
  C  C509  1  0.723210  0.026912  0.223175  1
  C  C510  1  0.723210  0.026912  0.723175  1
  C  C511  1  0.723210  0.526911  0.223175  1
  C  C512  1  0.723210  0.526911  0.723175  1
  C  C513  1  0.055431  0.055476  0.194305  1
  C  C514  1  0.055431  0.055476  0.694305  1
  C  C515  1  0.055431  0.555476  0.194305  1
  C  C516  1  0.055431  0.555476  0.694305  1
  C  C517  1  0.555432  0.055476  0.194305  1
  C  C518  1  0.555432  0.055476  0.694305  1
  C  C519  1  0.555432  0.555476  0.194305  1
  C  C520  1  0.555432  0.555476  0.694305  1
  C  C521  1  0.026788  0.026821  0.223070  1
  C  C522  1  0.026788  0.026821  0.723070  1
  C  C523  1  0.026788  0.526820  0.223070  1
  C  C524  1  0.026788  0.526820  0.723070  1
  C  C525  1  0.526788  0.026821  0.223070  1
  C  C526  1  0.526788  0.026821  0.723070  1
  C  C527  1  0.526788  0.526820  0.223070  1
  C  C528  1  0.526788  0.526820  0.723070  1
  C  C529  1  0.194563  0.194472  0.055630  1
  C  C530  1  0.194563  0.194472  0.555630  1
  C  C531  1  0.194563  0.694473  0.055630  1
  C  C532  1  0.194563  0.694473  0.555630  1
  C  C533  1  0.694563  0.194472  0.055630  1
  C  C534  1  0.694563  0.194472  0.555630  1
  C  C535  1  0.694563  0.694473  0.055630  1
  C  C536  1  0.694563  0.694473  0.555630  1
  C  C537  1  0.223213  0.223151  0.026905  1
  C  C538  1  0.223213  0.223151  0.526905  1
  C  C539  1  0.223213  0.723151  0.026905  1
  C  C540  1  0.223213  0.723151  0.526905  1
  C  C541  1  0.723213  0.223151  0.026905  1
  C  C542  1  0.723213  0.223151  0.526905  1
  C  C543  1  0.723213  0.723151  0.026905  1
  C  C544  1  0.723213  0.723151  0.526905  1
  C  C545  1  0.305447  0.444371  0.305480  1
  C  C546  1  0.305447  0.444371  0.805480  1
  C  C547  1  0.305447  0.944371  0.305480  1
  C  C548  1  0.305447  0.944371  0.805480  1
  C  C549  1  0.805447  0.444371  0.305480  1
  C  C550  1  0.805447  0.444371  0.805480  1
  C  C551  1  0.805448  0.944371  0.305480  1
  C  C552  1  0.805448  0.944371  0.805480  1
  C  C553  1  0.276798  0.473087  0.276820  1
  C  C554  1  0.276798  0.473087  0.776820  1
  C  C555  1  0.276798  0.973086  0.276820  1
  C  C556  1  0.276798  0.973086  0.776820  1
  C  C557  1  0.776798  0.473087  0.276820  1
  C  C558  1  0.776798  0.473087  0.776820  1
  C  C559  1  0.776798  0.973086  0.276820  1
  C  C560  1  0.776798  0.973086  0.776820  1
  C  C561  1  0.444580  0.305700  0.444550  1
  C  C562  1  0.444580  0.305700  0.944550  1
  C  C563  1  0.444581  0.805700  0.444550  1
  C  C564  1  0.444581  0.805700  0.944550  1
  C  C565  1  0.944581  0.305700  0.444550  1
  C  C566  1  0.944581  0.305700  0.944550  1
  C  C567  1  0.944581  0.805700  0.444550  1
  C  C568  1  0.944581  0.805700  0.944550  1
  C  C569  1  0.473221  0.276932  0.473150  1
  C  C570  1  0.473221  0.276932  0.973150  1
  C  C571  1  0.473220  0.776932  0.473150  1
  C  C572  1  0.473220  0.776932  0.973150  1
  C  C573  1  0.973220  0.276932  0.473150  1
  C  C574  1  0.973220  0.276932  0.973150  1
  C  C575  1  0.973221  0.776932  0.473150  1
  C  C576  1  0.973221  0.776932  0.973150  1
  C  C577  1  0.305690  0.444510  0.444535  1
  C  C578  1  0.305690  0.444510  0.944535  1
  C  C579  1  0.305691  0.944510  0.444535  1
  C  C580  1  0.305691  0.944510  0.944535  1
  C  C581  1  0.805690  0.444510  0.444535  1
  C  C582  1  0.805690  0.444510  0.944535  1
  C  C583  1  0.805691  0.944510  0.444535  1
  C  C584  1  0.805691  0.944510  0.944535  1
  C  C585  1  0.276936  0.473176  0.473150  1
  C  C586  1  0.276936  0.473176  0.973150  1
  C  C587  1  0.276936  0.973176  0.473150  1
  C  C588  1  0.276936  0.973176  0.973150  1
  C  C589  1  0.776936  0.473176  0.473150  1
  C  C590  1  0.776936  0.473176  0.973150  1
  C  C591  1  0.776936  0.973176  0.473150  1
  C  C592  1  0.776936  0.973176  0.973150  1
  C  C593  1  0.444360  0.305532  0.305490  1
  C  C594  1  0.444360  0.305532  0.805490  1
  C  C595  1  0.444360  0.805531  0.305490  1
  C  C596  1  0.444360  0.805531  0.805490  1
  C  C597  1  0.944360  0.305532  0.305490  1
  C  C598  1  0.944360  0.305532  0.805490  1
  C  C599  1  0.944360  0.805531  0.305490  1
  C  C600  1  0.944360  0.805531  0.805490  1
  C  C601  1  0.473093  0.276846  0.276815  1
  C  C602  1  0.473093  0.276846  0.776815  1
  C  C603  1  0.473094  0.776847  0.276815  1
  C  C604  1  0.473094  0.776847  0.776815  1
  C  C605  1  0.973094  0.276846  0.276815  1
  C  C606  1  0.973094  0.276846  0.776815  1
  C  C607  1  0.973094  0.776847  0.276815  1
  C  C608  1  0.973094  0.776847  0.776815  1
  C  C609  1  0.444578  0.444521  0.305690  1
  C  C610  1  0.444578  0.444521  0.805690  1
  C  C611  1  0.444578  0.944521  0.305690  1
  C  C612  1  0.444578  0.944521  0.805690  1
  C  C613  1  0.944578  0.444521  0.305690  1
  C  C614  1  0.944578  0.444521  0.805690  1
  C  C615  1  0.944579  0.944521  0.305690  1
  C  C616  1  0.944579  0.944521  0.805690  1
  C  C617  1  0.473222  0.473176  0.276925  1
  C  C618  1  0.473222  0.473176  0.776925  1
  C  C619  1  0.473222  0.973176  0.276925  1
  C  C620  1  0.473222  0.973176  0.776925  1
  C  C621  1  0.973222  0.473176  0.276925  1
  C  C622  1  0.973222  0.473176  0.776925  1
  C  C623  1  0.973222  0.973176  0.276925  1
  C  C624  1  0.973222  0.973176  0.776925  1
  C  C625  1  0.305448  0.305524  0.444365  1
  C  C626  1  0.305448  0.305524  0.944365  1
  C  C627  1  0.305448  0.805524  0.444365  1
  C  C628  1  0.305448  0.805524  0.944365  1
  C  C629  1  0.805448  0.305524  0.444365  1
  C  C630  1  0.805448  0.305524  0.944365  1
  C  C631  1  0.805448  0.805524  0.444365  1
  C  C632  1  0.805448  0.805524  0.944365  1
  C  C633  1  0.276795  0.276848  0.473085  1
  C  C634  1  0.276795  0.276848  0.973085  1
  C  C635  1  0.276795  0.776848  0.473085  1
  C  C636  1  0.276795  0.776848  0.973085  1
  C  C637  1  0.776795  0.276848  0.473085  1
  C  C638  1  0.776795  0.276848  0.973085  1
  C  C639  1  0.776795  0.776848  0.473085  1
  C  C640  1  0.776795  0.776848  0.973085  1
  O  O641  1  0.125025  0.125029  0.125025  1
  O  O642  1  0.125025  0.125029  0.625025  1
  O  O643  1  0.125025  0.625030  0.125025  1
  O  O644  1  0.125025  0.625030  0.625025  1
  O  O645  1  0.625024  0.125029  0.125025  1
  O  O646  1  0.625024  0.125029  0.625025  1
  O  O647  1  0.625024  0.625030  0.125025  1
  O  O648  1  0.625024  0.625030  0.625025  1
  O  O649  1  0.374985  0.374968  0.374970  1
  O  O650  1  0.374985  0.374968  0.874970  1
  O  O651  1  0.374985  0.874968  0.374970  1
  O  O652  1  0.374985  0.874968  0.874970  1
  O  O653  1  0.874985  0.374968  0.374970  1
  O  O654  1  0.874985  0.374968  0.874970  1
  O  O655  1  0.874985  0.874968  0.374970  1
  O  O656  1  0.874985  0.874968  0.874970  1
  O  O657  1  0.097547  0.183494  0.183605  1
  O  O658  1  0.097547  0.183494  0.683605  1
  O  O659  1  0.097546  0.683494  0.183605  1
  O  O660  1  0.097546  0.683494  0.683605  1
  O  O661  1  0.597546  0.183494  0.183605  1
  O  O662  1  0.597546  0.183494  0.683605  1
  O  O663  1  0.597547  0.683494  0.183605  1
  O  O664  1  0.597547  0.683494  0.683605  1
  O  O665  1  0.183177  0.097315  0.035705  1
  O  O666  1  0.183177  0.097315  0.535705  1
  O  O667  1  0.183178  0.597315  0.035705  1
  O  O668  1  0.183178  0.597315  0.535705  1
  O  O669  1  0.683177  0.097315  0.035705  1
  O  O670  1  0.683177  0.097315  0.535705  1
  O  O671  1  0.683178  0.597315  0.035705  1
  O  O672  1  0.683178  0.597315  0.535705  1
  O  O673  1  0.183233  0.035754  0.097315  1
  O  O674  1  0.183233  0.035754  0.597315  1
  O  O675  1  0.183232  0.535754  0.097315  1
  O  O676  1  0.183232  0.535754  0.597315  1
  O  O677  1  0.683233  0.035754  0.097315  1
  O  O678  1  0.683233  0.035754  0.597315  1
  O  O679  1  0.683233  0.535754  0.097315  1
  O  O680  1  0.683233  0.535754  0.597315  1
  O  O681  1  0.035856  0.183320  0.183315  1
  O  O682  1  0.035856  0.183320  0.683315  1
  O  O683  1  0.035856  0.683320  0.183315  1
  O  O684  1  0.035856  0.683320  0.683315  1
  O  O685  1  0.535856  0.183320  0.183315  1
  O  O686  1  0.535856  0.183320  0.683315  1
  O  O687  1  0.535857  0.683320  0.183315  1
  O  O688  1  0.535857  0.683320  0.683315  1
  O  O689  1  0.097323  0.183228  0.035670  1
  O  O690  1  0.097323  0.183228  0.535670  1
  O  O691  1  0.097323  0.683228  0.035670  1
  O  O692  1  0.097323  0.683228  0.535670  1
  O  O693  1  0.597323  0.183228  0.035670  1
  O  O694  1  0.597323  0.183228  0.535670  1
  O  O695  1  0.597323  0.683228  0.035670  1
  O  O696  1  0.597323  0.683228  0.535670  1
  O  O697  1  0.183338  0.035875  0.183365  1
  O  O698  1  0.183338  0.035875  0.683365  1
  O  O699  1  0.183338  0.535876  0.183365  1
  O  O700  1  0.183338  0.535876  0.683365  1
  O  O701  1  0.683338  0.035875  0.183365  1
  O  O702  1  0.683338  0.035875  0.683365  1
  O  O703  1  0.683338  0.535876  0.183365  1
  O  O704  1  0.683338  0.535876  0.683365  1
  O  O705  1  0.183709  0.097476  0.183555  1
  O  O706  1  0.183709  0.097476  0.683555  1
  O  O707  1  0.183709  0.597476  0.183555  1
  O  O708  1  0.183709  0.597476  0.683555  1
  O  O709  1  0.683709  0.097476  0.183555  1
  O  O710  1  0.683709  0.097476  0.683555  1
  O  O711  1  0.683709  0.597476  0.183555  1
  O  O712  1  0.683709  0.597476  0.683555  1
  O  O713  1  0.035633  0.183141  0.097310  1
  O  O714  1  0.035633  0.183141  0.597310  1
  O  O715  1  0.035633  0.683141  0.097310  1
  O  O716  1  0.035633  0.683141  0.597310  1
  O  O717  1  0.535633  0.183141  0.097310  1
  O  O718  1  0.535633  0.183141  0.597310  1
  O  O719  1  0.535633  0.683141  0.097310  1
  O  O720  1  0.535633  0.683141  0.597310  1
  O  O721  1  0.097321  0.035731  0.183265  1
  O  O722  1  0.097321  0.035731  0.683265  1
  O  O723  1  0.097321  0.535731  0.183265  1
  O  O724  1  0.097321  0.535731  0.683265  1
  O  O725  1  0.597321  0.035731  0.183265  1
  O  O726  1  0.597321  0.035731  0.683265  1
  O  O727  1  0.597321  0.535731  0.183265  1
  O  O728  1  0.597321  0.535731  0.683265  1
  O  O729  1  0.183735  0.183463  0.097500  1
  O  O730  1  0.183735  0.183463  0.597500  1
  O  O731  1  0.183735  0.683463  0.097500  1
  O  O732  1  0.183735  0.683463  0.597500  1
  O  O733  1  0.683735  0.183463  0.097500  1
  O  O734  1  0.683735  0.183463  0.597500  1
  O  O735  1  0.683735  0.683463  0.097500  1
  O  O736  1  0.683735  0.683463  0.597500  1
  O  O737  1  0.183327  0.183354  0.035855  1
  O  O738  1  0.183327  0.183354  0.535855  1
  O  O739  1  0.183327  0.683354  0.035855  1
  O  O740  1  0.183327  0.683354  0.535855  1
  O  O741  1  0.683327  0.183354  0.035855  1
  O  O742  1  0.683327  0.183354  0.535855  1
  O  O743  1  0.683327  0.683354  0.035855  1
  O  O744  1  0.683327  0.683354  0.535855  1
  O  O745  1  0.035643  0.097310  0.183125  1
  O  O746  1  0.035643  0.097310  0.683125  1
  O  O747  1  0.035643  0.597310  0.183125  1
  O  O748  1  0.035643  0.597310  0.683125  1
  O  O749  1  0.535643  0.097310  0.183125  1
  O  O750  1  0.535643  0.097310  0.683125  1
  O  O751  1  0.535643  0.597310  0.183125  1
  O  O752  1  0.535643  0.597310  0.683125  1
  O  O753  1  0.316301  0.402522  0.316440  1
  O  O754  1  0.316301  0.402522  0.816440  1
  O  O755  1  0.316301  0.902522  0.316440  1
  O  O756  1  0.316301  0.902522  0.816440  1
  O  O757  1  0.816301  0.402522  0.316440  1
  O  O758  1  0.816301  0.402522  0.816440  1
  O  O759  1  0.816301  0.902522  0.316440  1
  O  O760  1  0.816301  0.902522  0.816440  1
  O  O761  1  0.402687  0.316769  0.464325  1
  O  O762  1  0.402687  0.316769  0.964325  1
  O  O763  1  0.402687  0.816769  0.464325  1
  O  O764  1  0.402687  0.816769  0.964325  1
  O  O765  1  0.902687  0.316769  0.464325  1
  O  O766  1  0.902687  0.316769  0.964325  1
  O  O767  1  0.902687  0.816769  0.464325  1
  O  O768  1  0.902687  0.816769  0.964325  1
  O  O769  1  0.464377  0.316855  0.402685  1
  O  O770  1  0.464377  0.316855  0.902685  1
  O  O771  1  0.464377  0.816855  0.402685  1
  O  O772  1  0.464377  0.816855  0.902685  1
  O  O773  1  0.964377  0.316855  0.402685  1
  O  O774  1  0.964377  0.316855  0.902685  1
  O  O775  1  0.964377  0.816855  0.402685  1
  O  O776  1  0.964377  0.816855  0.902685  1
  O  O777  1  0.316673  0.464122  0.316630  1
  O  O778  1  0.316673  0.464122  0.816630  1
  O  O779  1  0.316673  0.964122  0.316630  1
  O  O780  1  0.316673  0.964122  0.816630  1
  O  O781  1  0.816673  0.464122  0.316630  1
  O  O782  1  0.816673  0.464122  0.816630  1
  O  O783  1  0.816673  0.964122  0.316630  1
  O  O784  1  0.816673  0.964122  0.816630  1
  O  O785  1  0.316831  0.402682  0.464290  1
  O  O786  1  0.316831  0.402682  0.964290  1
  O  O787  1  0.316831  0.902682  0.464290  1
  O  O788  1  0.316831  0.902682  0.964290  1
  O  O789  1  0.816831  0.402682  0.464290  1
  O  O790  1  0.816831  0.402682  0.964290  1
  O  O791  1  0.816831  0.902682  0.464290  1
  O  O792  1  0.816831  0.902682  0.964290  1
  O  O793  1  0.464153  0.316675  0.316680  1
  O  O794  1  0.464153  0.316675  0.816680  1
  O  O795  1  0.464153  0.816674  0.316680  1
  O  O796  1  0.464153  0.816674  0.816680  1
  O  O797  1  0.964153  0.316675  0.316680  1
  O  O798  1  0.964153  0.316675  0.816680  1
  O  O799  1  0.964153  0.816674  0.316680  1
  O  O800  1  0.964153  0.816674  0.816680  1
  O  O801  1  0.402463  0.316503  0.316390  1
  O  O802  1  0.402463  0.316503  0.816390  1
  O  O803  1  0.402463  0.816503  0.316390  1
  O  O804  1  0.402463  0.816503  0.816390  1
  O  O805  1  0.902463  0.316503  0.316390  1
  O  O806  1  0.902463  0.316503  0.816390  1
  O  O807  1  0.902463  0.816503  0.316390  1
  O  O808  1  0.902463  0.816503  0.816390  1
  O  O809  1  0.316775  0.464243  0.402680  1
  O  O810  1  0.316775  0.464243  0.902680  1
  O  O811  1  0.316775  0.964244  0.402680  1
  O  O812  1  0.316775  0.964244  0.902680  1
  O  O813  1  0.816775  0.464243  0.402680  1
  O  O814  1  0.816775  0.464243  0.902680  1
  O  O815  1  0.816775  0.964244  0.402680  1
  O  O816  1  0.816775  0.964244  0.902680  1
  O  O817  1  0.464367  0.402687  0.316865  1
  O  O818  1  0.464367  0.402687  0.816865  1
  O  O819  1  0.464367  0.902687  0.316865  1
  O  O820  1  0.464367  0.902687  0.816865  1
  O  O821  1  0.964367  0.402687  0.316865  1
  O  O822  1  0.964367  0.402687  0.816865  1
  O  O823  1  0.964367  0.902687  0.316865  1
  O  O824  1  0.964367  0.902687  0.816865  1
  O  O825  1  0.316276  0.316534  0.402495  1
  O  O826  1  0.316276  0.316534  0.902495  1
  O  O827  1  0.316276  0.816534  0.402495  1
  O  O828  1  0.316276  0.816534  0.902495  1
  O  O829  1  0.816276  0.316534  0.402495  1
  O  O830  1  0.816276  0.316534  0.902495  1
  O  O831  1  0.816276  0.816534  0.402495  1
  O  O832  1  0.816276  0.816534  0.902495  1
  O  O833  1  0.316684  0.316642  0.464140  1
  O  O834  1  0.316684  0.316642  0.964140  1
  O  O835  1  0.316684  0.816642  0.464140  1
  O  O836  1  0.316684  0.816642  0.964140  1
  O  O837  1  0.816684  0.316642  0.464140  1
  O  O838  1  0.816684  0.316642  0.964140  1
  O  O839  1  0.816684  0.816642  0.464140  1
  O  O840  1  0.816684  0.816642  0.964140  1
  O  O841  1  0.402689  0.464266  0.316730  1
  O  O842  1  0.402689  0.464266  0.816730  1
  O  O843  1  0.402689  0.964267  0.316730  1
  O  O844  1  0.402689  0.964267  0.816730  1
  O  O845  1  0.902689  0.464266  0.316730  1
  O  O846  1  0.902689  0.464266  0.816730  1
  O  O847  1  0.902689  0.964267  0.316730  1
  O  O848  1  0.902689  0.964267  0.816730  1
